# example-fau.xtl

data_example-fau.cif

_cell_length_a          23.941
_cell_length_b          23.941
_cell_length_c          23.941
_cell_angle_alpha       90
_cell_angle_beta        90
_cell_angle_gamma       90
_symmetry_space_group_name_H-M 'P 1'
_symmetry_Int_Tables_number 1

loop_
_atom_site_type_symbol
_atom_site_label
_atom_site_fract_x
_atom_site_fract_y
_atom_site_fract_z
o o_1   0.00000000   0.89320000   0.10680000
o o_2   0.00000000   0.39320000   0.60680000
o o_3   0.50000000   0.39320000   0.10680000
o o_4   0.50000000   0.89320000   0.60680000
o o_5   0.10680000   0.00000000   0.89320000
o o_6   0.10680000   0.50000000   0.39320000
o o_7   0.60680000   0.50000000   0.89320000
o o_8   0.60680000   0.00000000   0.39320000
o o_9   0.89320000   0.10680000   0.00000000
o o_10   0.89320000   0.60680000   0.50000000
o o_11   0.39320000   0.60680000   0.00000000
o o_12   0.39320000   0.10680000   0.50000000
o o_13   0.00000000   0.14320000   0.35680000
o o_14   0.00000000   0.64320000   0.85680000
o o_15   0.50000000   0.64320000   0.35680000
o o_16   0.50000000   0.14320000   0.85680000
o o_17   0.89320000   0.25000000   0.14320000
o o_18   0.89320000   0.75000000   0.64320000
o o_19   0.39320000   0.75000000   0.14320000
o o_20   0.39320000   0.25000000   0.64320000
o o_21   0.10680000   0.35680000   0.25000000
o o_22   0.10680000   0.85680000   0.75000000
o o_23   0.60680000   0.85680000   0.25000000
o o_24   0.60680000   0.35680000   0.75000000
o o_25   0.25000000   0.10680000   0.35680000
o o_26   0.25000000   0.60680000   0.85680000
o o_27   0.75000000   0.60680000   0.35680000
o o_28   0.75000000   0.10680000   0.85680000
o o_29   0.35680000   0.00000000   0.14320000
o o_30   0.35680000   0.50000000   0.64320000
o o_31   0.85680000   0.50000000   0.14320000
o o_32   0.85680000   0.00000000   0.64320000
o o_33   0.14320000   0.89320000   0.25000000
o o_34   0.14320000   0.39320000   0.75000000
o o_35   0.64320000   0.39320000   0.25000000
o o_36   0.64320000   0.89320000   0.75000000
o o_37   0.25000000   0.85680000   0.60680000
o o_38   0.25000000   0.35680000   0.10680000
o o_39   0.75000000   0.35680000   0.60680000
o o_40   0.75000000   0.85680000   0.10680000
o o_41   0.14320000   0.75000000   0.39320000
o o_42   0.14320000   0.25000000   0.89320000
o o_43   0.64320000   0.25000000   0.39320000
o o_44   0.64320000   0.75000000   0.89320000
o o_45   0.35680000   0.64320000   0.50000000
o o_46   0.35680000   0.14320000   0.00000000
o o_47   0.85680000   0.14320000   0.50000000
o o_48   0.85680000   0.64320000   0.00000000
o o_49   0.89320000   0.00000000   0.10680000
o o_50   0.89320000   0.50000000   0.60680000
o o_51   0.39320000   0.50000000   0.10680000
o o_52   0.39320000   0.00000000   0.60680000
o o_53   0.00000000   0.10680000   0.89320000
o o_54   0.00000000   0.60680000   0.39320000
o o_55   0.50000000   0.60680000   0.89320000
o o_56   0.50000000   0.10680000   0.39320000
o o_57   0.10680000   0.89320000   0.00000000
o o_58   0.10680000   0.39320000   0.50000000
o o_59   0.60680000   0.39320000   0.00000000
o o_60   0.60680000   0.89320000   0.50000000
o o_61   0.14320000   0.00000000   0.35680000
o o_62   0.14320000   0.50000000   0.85680000
o o_63   0.64320000   0.50000000   0.35680000
o o_64   0.64320000   0.00000000   0.85680000
o o_65   0.25000000   0.89320000   0.14320000
o o_66   0.25000000   0.39320000   0.64320000
o o_67   0.75000000   0.39320000   0.14320000
o o_68   0.75000000   0.89320000   0.64320000
o o_69   0.35680000   0.10680000   0.25000000
o o_70   0.35680000   0.60680000   0.75000000
o o_71   0.85680000   0.60680000   0.25000000
o o_72   0.85680000   0.10680000   0.75000000
o o_73   0.10680000   0.25000000   0.35680000
o o_74   0.10680000   0.75000000   0.85680000
o o_75   0.60680000   0.75000000   0.35680000
o o_76   0.60680000   0.25000000   0.85680000
o o_77   0.00000000   0.35680000   0.14320000
o o_78   0.00000000   0.85680000   0.64320000
o o_79   0.50000000   0.85680000   0.14320000
o o_80   0.50000000   0.35680000   0.64320000
o o_81   0.89320000   0.14320000   0.25000000
o o_82   0.89320000   0.64320000   0.75000000
o o_83   0.39320000   0.64320000   0.25000000
o o_84   0.39320000   0.14320000   0.75000000
o o_85   0.85680000   0.25000000   0.60680000
o o_86   0.85680000   0.75000000   0.10680000
o o_87   0.35680000   0.75000000   0.60680000
o o_88   0.35680000   0.25000000   0.10680000
o o_89   0.75000000   0.14320000   0.39320000
o o_90   0.75000000   0.64320000   0.89320000
o o_91   0.25000000   0.64320000   0.39320000
o o_92   0.25000000   0.14320000   0.89320000
o o_93   0.64320000   0.35680000   0.50000000
o o_94   0.64320000   0.85680000   0.00000000
o o_95   0.14320000   0.85680000   0.50000000
o o_96   0.14320000   0.35680000   0.00000000
o o_97   0.99660000   0.99660000   0.13520000
o o_98   0.99660000   0.49660000   0.63520000
o o_99   0.49660000   0.49660000   0.13520000
o o_100   0.49660000   0.99660000   0.63520000
o o_101   0.13520000   0.99660000   0.99660000
o o_102   0.13520000   0.49660000   0.49660000
o o_103   0.63520000   0.49660000   0.99660000
o o_104   0.63520000   0.99660000   0.49660000
o o_105   0.99660000   0.13520000   0.99660000
o o_106   0.99660000   0.63520000   0.49660000
o o_107   0.49660000   0.63520000   0.99660000
o o_108   0.49660000   0.13520000   0.49660000
o o_109   0.00340000   0.24660000   0.38520000
o o_110   0.00340000   0.74660000   0.88520000
o o_111   0.50340000   0.74660000   0.38520000
o o_112   0.50340000   0.24660000   0.88520000
o o_113   0.86480000   0.24660000   0.24660000
o o_114   0.86480000   0.74660000   0.74660000
o o_115   0.36480000   0.74660000   0.24660000
o o_116   0.36480000   0.24660000   0.74660000
o o_117   0.00340000   0.38520000   0.24660000
o o_118   0.00340000   0.88520000   0.74660000
o o_119   0.50340000   0.88520000   0.24660000
o o_120   0.50340000   0.38520000   0.74660000
o o_121   0.24660000   0.00340000   0.38520000
o o_122   0.24660000   0.50340000   0.88520000
o o_123   0.74660000   0.50340000   0.38520000
o o_124   0.74660000   0.00340000   0.88520000
o o_125   0.38520000   0.00340000   0.24660000
o o_126   0.38520000   0.50340000   0.74660000
o o_127   0.88520000   0.50340000   0.24660000
o o_128   0.88520000   0.00340000   0.74660000
o o_129   0.24660000   0.86480000   0.24660000
o o_130   0.24660000   0.36480000   0.74660000
o o_131   0.74660000   0.36480000   0.24660000
o o_132   0.74660000   0.86480000   0.74660000
o o_133   0.25340000   0.75340000   0.63520000
o o_134   0.25340000   0.25340000   0.13520000
o o_135   0.75340000   0.25340000   0.63520000
o o_136   0.75340000   0.75340000   0.13520000
o o_137   0.11480000   0.75340000   0.49660000
o o_138   0.11480000   0.25340000   0.99660000
o o_139   0.61480000   0.25340000   0.49660000
o o_140   0.61480000   0.75340000   0.99660000
o o_141   0.25340000   0.61480000   0.49660000
o o_142   0.25340000   0.11480000   0.99660000
o o_143   0.75340000   0.11480000   0.49660000
o o_144   0.75340000   0.61480000   0.99660000
o o_145   0.00340000   0.00340000   0.86480000
o o_146   0.00340000   0.50340000   0.36480000
o o_147   0.50340000   0.50340000   0.86480000
o o_148   0.50340000   0.00340000   0.36480000
o o_149   0.86480000   0.00340000   0.00340000
o o_150   0.86480000   0.50340000   0.50340000
o o_151   0.36480000   0.50340000   0.00340000
o o_152   0.36480000   0.00340000   0.50340000
o o_153   0.00340000   0.86480000   0.00340000
o o_154   0.00340000   0.36480000   0.50340000
o o_155   0.50340000   0.36480000   0.00340000
o o_156   0.50340000   0.86480000   0.50340000
o o_157   0.99660000   0.75340000   0.61480000
o o_158   0.99660000   0.25340000   0.11480000
o o_159   0.49660000   0.25340000   0.61480000
o o_160   0.49660000   0.75340000   0.11480000
o o_161   0.13520000   0.75340000   0.75340000
o o_162   0.13520000   0.25340000   0.25340000
o o_163   0.63520000   0.25340000   0.75340000
o o_164   0.63520000   0.75340000   0.25340000
o o_165   0.99660000   0.61480000   0.75340000
o o_166   0.99660000   0.11480000   0.25340000
o o_167   0.49660000   0.11480000   0.75340000
o o_168   0.49660000   0.61480000   0.25340000
o o_169   0.75340000   0.99660000   0.61480000
o o_170   0.75340000   0.49660000   0.11480000
o o_171   0.25340000   0.49660000   0.61480000
o o_172   0.25340000   0.99660000   0.11480000
o o_173   0.61480000   0.99660000   0.75340000
o o_174   0.61480000   0.49660000   0.25340000
o o_175   0.11480000   0.49660000   0.75340000
o o_176   0.11480000   0.99660000   0.25340000
o o_177   0.75340000   0.13520000   0.75340000
o o_178   0.75340000   0.63520000   0.25340000
o o_179   0.25340000   0.63520000   0.75340000
o o_180   0.25340000   0.13520000   0.25340000
o o_181   0.74660000   0.24660000   0.36480000
o o_182   0.74660000   0.74660000   0.86480000
o o_183   0.24660000   0.74660000   0.36480000
o o_184   0.24660000   0.24660000   0.86480000
o o_185   0.88520000   0.24660000   0.50340000
o o_186   0.88520000   0.74660000   0.00340000
o o_187   0.38520000   0.74660000   0.50340000
o o_188   0.38520000   0.24660000   0.00340000
o o_189   0.74660000   0.38520000   0.50340000
o o_190   0.74660000   0.88520000   0.00340000
o o_191   0.24660000   0.88520000   0.50340000
o o_192   0.24660000   0.38520000   0.00340000
o o_193   0.06250000   0.06250000   0.31550000
o o_194   0.06250000   0.56250000   0.81550000
o o_195   0.56250000   0.56250000   0.31550000
o o_196   0.56250000   0.06250000   0.81550000
o o_197   0.31550000   0.06250000   0.06250000
o o_198   0.31550000   0.56250000   0.56250000
o o_199   0.81550000   0.56250000   0.06250000
o o_200   0.81550000   0.06250000   0.56250000
o o_201   0.06250000   0.31550000   0.06250000
o o_202   0.06250000   0.81550000   0.56250000
o o_203   0.56250000   0.81550000   0.06250000
o o_204   0.56250000   0.31550000   0.56250000
o o_205   0.93750000   0.31250000   0.56550000
o o_206   0.93750000   0.81250000   0.06550000
o o_207   0.43750000   0.81250000   0.56550000
o o_208   0.43750000   0.31250000   0.06550000
o o_209   0.68450000   0.31250000   0.31250000
o o_210   0.68450000   0.81250000   0.81250000
o o_211   0.18450000   0.81250000   0.31250000
o o_212   0.18450000   0.31250000   0.81250000
o o_213   0.93750000   0.56550000   0.31250000
o o_214   0.93750000   0.06550000   0.81250000
o o_215   0.43750000   0.06550000   0.31250000
o o_216   0.43750000   0.56550000   0.81250000
o o_217   0.31250000   0.93750000   0.56550000
o o_218   0.31250000   0.43750000   0.06550000
o o_219   0.81250000   0.43750000   0.56550000
o o_220   0.81250000   0.93750000   0.06550000
o o_221   0.56550000   0.93750000   0.31250000
o o_222   0.56550000   0.43750000   0.81250000
o o_223   0.06550000   0.43750000   0.31250000
o o_224   0.06550000   0.93750000   0.81250000
o o_225   0.31250000   0.68450000   0.31250000
o o_226   0.31250000   0.18450000   0.81250000
o o_227   0.81250000   0.18450000   0.31250000
o o_228   0.81250000   0.68450000   0.81250000
o o_229   0.18750000   0.68750000   0.81550000
o o_230   0.18750000   0.18750000   0.31550000
o o_231   0.68750000   0.18750000   0.81550000
o o_232   0.68750000   0.68750000   0.31550000
o o_233   0.93450000   0.68750000   0.56250000
o o_234   0.93450000   0.18750000   0.06250000
o o_235   0.43450000   0.18750000   0.56250000
o o_236   0.43450000   0.68750000   0.06250000
o o_237   0.18750000   0.43450000   0.56250000
o o_238   0.18750000   0.93450000   0.06250000
o o_239   0.68750000   0.93450000   0.56250000
o o_240   0.68750000   0.43450000   0.06250000
o o_241   0.93750000   0.93750000   0.68450000
o o_242   0.93750000   0.43750000   0.18450000
o o_243   0.43750000   0.43750000   0.68450000
o o_244   0.43750000   0.93750000   0.18450000
o o_245   0.68450000   0.93750000   0.93750000
o o_246   0.68450000   0.43750000   0.43750000
o o_247   0.18450000   0.43750000   0.93750000
o o_248   0.18450000   0.93750000   0.43750000
o o_249   0.93750000   0.68450000   0.93750000
o o_250   0.93750000   0.18450000   0.43750000
o o_251   0.43750000   0.18450000   0.93750000
o o_252   0.43750000   0.68450000   0.43750000
o o_253   0.06250000   0.68750000   0.43450000
o o_254   0.06250000   0.18750000   0.93450000
o o_255   0.56250000   0.18750000   0.43450000
o o_256   0.56250000   0.68750000   0.93450000
o o_257   0.31550000   0.68750000   0.68750000
o o_258   0.31550000   0.18750000   0.18750000
o o_259   0.81550000   0.18750000   0.68750000
o o_260   0.81550000   0.68750000   0.18750000
o o_261   0.06250000   0.43450000   0.68750000
o o_262   0.06250000   0.93450000   0.18750000
o o_263   0.56250000   0.93450000   0.68750000
o o_264   0.56250000   0.43450000   0.18750000
o o_265   0.68750000   0.06250000   0.43450000
o o_266   0.68750000   0.56250000   0.93450000
o o_267   0.18750000   0.56250000   0.43450000
o o_268   0.18750000   0.06250000   0.93450000
o o_269   0.43450000   0.06250000   0.68750000
o o_270   0.43450000   0.56250000   0.18750000
o o_271   0.93450000   0.56250000   0.68750000
o o_272   0.93450000   0.06250000   0.18750000
o o_273   0.68750000   0.31550000   0.68750000
o o_274   0.68750000   0.81550000   0.18750000
o o_275   0.18750000   0.81550000   0.68750000
o o_276   0.18750000   0.31550000   0.18750000
o o_277   0.81250000   0.31250000   0.18450000
o o_278   0.81250000   0.81250000   0.68450000
o o_279   0.31250000   0.81250000   0.18450000
o o_280   0.31250000   0.31250000   0.68450000
o o_281   0.06550000   0.31250000   0.43750000
o o_282   0.06550000   0.81250000   0.93750000
o o_283   0.56550000   0.81250000   0.43750000
o o_284   0.56550000   0.31250000   0.93750000
o o_285   0.81250000   0.56550000   0.43750000
o o_286   0.81250000   0.06550000   0.93750000
o o_287   0.31250000   0.06550000   0.43750000
o o_288   0.31250000   0.56550000   0.93750000
o o_289   0.07270000   0.07270000   0.96720000
o o_290   0.07270000   0.57270000   0.46720000
o o_291   0.57270000   0.57270000   0.96720000
o o_292   0.57270000   0.07270000   0.46720000
o o_293   0.96720000   0.07270000   0.07270000
o o_294   0.96720000   0.57270000   0.57270000
o o_295   0.46720000   0.57270000   0.07270000
o o_296   0.46720000   0.07270000   0.57270000
o o_297   0.07270000   0.96720000   0.07270000
o o_298   0.07270000   0.46720000   0.57270000
o o_299   0.57270000   0.46720000   0.07270000
o o_300   0.57270000   0.96720000   0.57270000
o o_301   0.92730000   0.32270000   0.21720000
o o_302   0.92730000   0.82270000   0.71720000
o o_303   0.42730000   0.82270000   0.21720000
o o_304   0.42730000   0.32270000   0.71720000
o o_305   0.03280000   0.32270000   0.32270000
o o_306   0.03280000   0.82270000   0.82270000
o o_307   0.53280000   0.82270000   0.32270000
o o_308   0.53280000   0.32270000   0.82270000
o o_309   0.92730000   0.21720000   0.32270000
o o_310   0.92730000   0.71720000   0.82270000
o o_311   0.42730000   0.71720000   0.32270000
o o_312   0.42730000   0.21720000   0.82270000
o o_313   0.32270000   0.92730000   0.21720000
o o_314   0.32270000   0.42730000   0.71720000
o o_315   0.82270000   0.42730000   0.21720000
o o_316   0.82270000   0.92730000   0.71720000
o o_317   0.21720000   0.92730000   0.32270000
o o_318   0.21720000   0.42730000   0.82270000
o o_319   0.71720000   0.42730000   0.32270000
o o_320   0.71720000   0.92730000   0.82270000
o o_321   0.32270000   0.03280000   0.32270000
o o_322   0.32270000   0.53280000   0.82270000
o o_323   0.82270000   0.53280000   0.32270000
o o_324   0.82270000   0.03280000   0.82270000
o o_325   0.17730000   0.67730000   0.46720000
o o_326   0.17730000   0.17730000   0.96720000
o o_327   0.67730000   0.17730000   0.46720000
o o_328   0.67730000   0.67730000   0.96720000
o o_329   0.28280000   0.67730000   0.57270000
o o_330   0.28280000   0.17730000   0.07270000
o o_331   0.78280000   0.17730000   0.57270000
o o_332   0.78280000   0.67730000   0.07270000
o o_333   0.17730000   0.78280000   0.57270000
o o_334   0.17730000   0.28280000   0.07270000
o o_335   0.67730000   0.28280000   0.57270000
o o_336   0.67730000   0.78280000   0.07270000
o o_337   0.92730000   0.92730000   0.03280000
o o_338   0.92730000   0.42730000   0.53280000
o o_339   0.42730000   0.42730000   0.03280000
o o_340   0.42730000   0.92730000   0.53280000
o o_341   0.03280000   0.92730000   0.92730000
o o_342   0.03280000   0.42730000   0.42730000
o o_343   0.53280000   0.42730000   0.92730000
o o_344   0.53280000   0.92730000   0.42730000
o o_345   0.92730000   0.03280000   0.92730000
o o_346   0.92730000   0.53280000   0.42730000
o o_347   0.42730000   0.53280000   0.92730000
o o_348   0.42730000   0.03280000   0.42730000
o o_349   0.07270000   0.67730000   0.78280000
o o_350   0.07270000   0.17730000   0.28280000
o o_351   0.57270000   0.17730000   0.78280000
o o_352   0.57270000   0.67730000   0.28280000
o o_353   0.96720000   0.67730000   0.67730000
o o_354   0.96720000   0.17730000   0.17730000
o o_355   0.46720000   0.17730000   0.67730000
o o_356   0.46720000   0.67730000   0.17730000
o o_357   0.07270000   0.78280000   0.67730000
o o_358   0.07270000   0.28280000   0.17730000
o o_359   0.57270000   0.28280000   0.67730000
o o_360   0.57270000   0.78280000   0.17730000
o o_361   0.67730000   0.07270000   0.78280000
o o_362   0.67730000   0.57270000   0.28280000
o o_363   0.17730000   0.57270000   0.78280000
o o_364   0.17730000   0.07270000   0.28280000
o o_365   0.78280000   0.07270000   0.67730000
o o_366   0.78280000   0.57270000   0.17730000
o o_367   0.28280000   0.57270000   0.67730000
o o_368   0.28280000   0.07270000   0.17730000
o o_369   0.67730000   0.96720000   0.67730000
o o_370   0.67730000   0.46720000   0.17730000
o o_371   0.17730000   0.46720000   0.67730000
o o_372   0.17730000   0.96720000   0.17730000
o o_373   0.82270000   0.32270000   0.53280000
o o_374   0.82270000   0.82270000   0.03280000
o o_375   0.32270000   0.82270000   0.53280000
o o_376   0.32270000   0.32270000   0.03280000
o o_377   0.71720000   0.32270000   0.42730000
o o_378   0.71720000   0.82270000   0.92730000
o o_379   0.21720000   0.82270000   0.42730000
o o_380   0.21720000   0.32270000   0.92730000
o o_381   0.82270000   0.21720000   0.42730000
o o_382   0.82270000   0.71720000   0.92730000
o o_383   0.32270000   0.71720000   0.42730000
o o_384   0.32270000   0.21720000   0.92730000
si si_385   0.94750000   0.12320000   0.03515000
si si_386   0.94750000   0.62320000   0.53515000
si si_387   0.44750000   0.62320000   0.03515000
si si_388   0.44750000   0.12320000   0.53515000
si si_389   0.03515000   0.94750000   0.12320000
si si_390   0.03515000   0.44750000   0.62320000
si si_391   0.53515000   0.44750000   0.12320000
si si_392   0.53515000   0.94750000   0.62320000
si si_393   0.12320000   0.03515000   0.94750000
si si_394   0.12320000   0.53515000   0.44750000
si si_395   0.62320000   0.53515000   0.94750000
si si_396   0.62320000   0.03515000   0.44750000
si si_397   0.05250000   0.37320000   0.28515000
si si_398   0.05250000   0.87320000   0.78515000
si si_399   0.55250000   0.87320000   0.28515000
si si_400   0.55250000   0.37320000   0.78515000
si si_401   0.96485000   0.19750000   0.37320000
si si_402   0.96485000   0.69750000   0.87320000
si si_403   0.46485000   0.69750000   0.37320000
si si_404   0.46485000   0.19750000   0.87320000
si si_405   0.87680000   0.28515000   0.19750000
si si_406   0.87680000   0.78515000   0.69750000
si si_407   0.37680000   0.78515000   0.19750000
si si_408   0.37680000   0.28515000   0.69750000
si si_409   0.19750000   0.87680000   0.28515000
si si_410   0.19750000   0.37680000   0.78515000
si si_411   0.69750000   0.37680000   0.28515000
si si_412   0.69750000   0.87680000   0.78515000
si si_413   0.28515000   0.05250000   0.37320000
si si_414   0.28515000   0.55250000   0.87320000
si si_415   0.78515000   0.55250000   0.37320000
si si_416   0.78515000   0.05250000   0.87320000
si si_417   0.37320000   0.96485000   0.19750000
si si_418   0.37320000   0.46485000   0.69750000
si si_419   0.87320000   0.46485000   0.19750000
si si_420   0.87320000   0.96485000   0.69750000
si si_421   0.30250000   0.62680000   0.53515000
si si_422   0.30250000   0.12680000   0.03515000
si si_423   0.80250000   0.12680000   0.53515000
si si_424   0.80250000   0.62680000   0.03515000
si si_425   0.21485000   0.80250000   0.62320000
si si_426   0.21485000   0.30250000   0.12320000
si si_427   0.71485000   0.30250000   0.62320000
si si_428   0.71485000   0.80250000   0.12320000
si si_429   0.12680000   0.71485000   0.44750000
si si_430   0.12680000   0.21485000   0.94750000
si si_431   0.62680000   0.21485000   0.44750000
si si_432   0.62680000   0.71485000   0.94750000
si si_433   0.12320000   0.94750000   0.03515000
si si_434   0.12320000   0.44750000   0.53515000
si si_435   0.62320000   0.44750000   0.03515000
si si_436   0.62320000   0.94750000   0.53515000
si si_437   0.94750000   0.03515000   0.12320000
si si_438   0.94750000   0.53515000   0.62320000
si si_439   0.44750000   0.53515000   0.12320000
si si_440   0.44750000   0.03515000   0.62320000
si si_441   0.03515000   0.12320000   0.94750000
si si_442   0.03515000   0.62320000   0.44750000
si si_443   0.53515000   0.62320000   0.94750000
si si_444   0.53515000   0.12320000   0.44750000
si si_445   0.37320000   0.05250000   0.28515000
si si_446   0.37320000   0.55250000   0.78515000
si si_447   0.87320000   0.55250000   0.28515000
si si_448   0.87320000   0.05250000   0.78515000
si si_449   0.19750000   0.96485000   0.37320000
si si_450   0.19750000   0.46485000   0.87320000
si si_451   0.69750000   0.46485000   0.37320000
si si_452   0.69750000   0.96485000   0.87320000
si si_453   0.28515000   0.87680000   0.19750000
si si_454   0.28515000   0.37680000   0.69750000
si si_455   0.78515000   0.37680000   0.19750000
si si_456   0.78515000   0.87680000   0.69750000
si si_457   0.87680000   0.19750000   0.28515000
si si_458   0.87680000   0.69750000   0.78515000
si si_459   0.37680000   0.69750000   0.28515000
si si_460   0.37680000   0.19750000   0.78515000
si si_461   0.05250000   0.28515000   0.37320000
si si_462   0.05250000   0.78515000   0.87320000
si si_463   0.55250000   0.78515000   0.37320000
si si_464   0.55250000   0.28515000   0.87320000
si si_465   0.96485000   0.37320000   0.19750000
si si_466   0.96485000   0.87320000   0.69750000
si si_467   0.46485000   0.87320000   0.19750000
si si_468   0.46485000   0.37320000   0.69750000
si si_469   0.62680000   0.30250000   0.53515000
si si_470   0.62680000   0.80250000   0.03515000
si si_471   0.12680000   0.80250000   0.53515000
si si_472   0.12680000   0.30250000   0.03515000
si si_473   0.80250000   0.21485000   0.62320000
si si_474   0.80250000   0.71485000   0.12320000
si si_475   0.30250000   0.71485000   0.62320000
si si_476   0.30250000   0.21485000   0.12320000
si si_477   0.71485000   0.12680000   0.44750000
si si_478   0.71485000   0.62680000   0.94750000
si si_479   0.21485000   0.62680000   0.44750000
si si_480   0.21485000   0.12680000   0.94750000
si si_481   0.05250000   0.87680000   0.96485000
si si_482   0.05250000   0.37680000   0.46485000
si si_483   0.55250000   0.37680000   0.96485000
si si_484   0.55250000   0.87680000   0.46485000
si si_485   0.96485000   0.05250000   0.87680000
si si_486   0.96485000   0.55250000   0.37680000
si si_487   0.46485000   0.55250000   0.87680000
si si_488   0.46485000   0.05250000   0.37680000
si si_489   0.87680000   0.96485000   0.05250000
si si_490   0.87680000   0.46485000   0.55250000
si si_491   0.37680000   0.46485000   0.05250000
si si_492   0.37680000   0.96485000   0.55250000
si si_493   0.94750000   0.62680000   0.71485000
si si_494   0.94750000   0.12680000   0.21485000
si si_495   0.44750000   0.12680000   0.71485000
si si_496   0.44750000   0.62680000   0.21485000
si si_497   0.03515000   0.80250000   0.62680000
si si_498   0.03515000   0.30250000   0.12680000
si si_499   0.53515000   0.30250000   0.62680000
si si_500   0.53515000   0.80250000   0.12680000
si si_501   0.12320000   0.71485000   0.80250000
si si_502   0.12320000   0.21485000   0.30250000
si si_503   0.62320000   0.21485000   0.80250000
si si_504   0.62320000   0.71485000   0.30250000
si si_505   0.80250000   0.12320000   0.71485000
si si_506   0.80250000   0.62320000   0.21485000
si si_507   0.30250000   0.62320000   0.71485000
si si_508   0.30250000   0.12320000   0.21485000
si si_509   0.71485000   0.94750000   0.62680000
si si_510   0.71485000   0.44750000   0.12680000
si si_511   0.21485000   0.44750000   0.62680000
si si_512   0.21485000   0.94750000   0.12680000
si si_513   0.62680000   0.03515000   0.80250000
si si_514   0.62680000   0.53515000   0.30250000
si si_515   0.12680000   0.53515000   0.80250000
si si_516   0.12680000   0.03515000   0.30250000
si si_517   0.69750000   0.37320000   0.46485000
si si_518   0.69750000   0.87320000   0.96485000
si si_519   0.19750000   0.87320000   0.46485000
si si_520   0.19750000   0.37320000   0.96485000
si si_521   0.78515000   0.19750000   0.37680000
si si_522   0.78515000   0.69750000   0.87680000
si si_523   0.28515000   0.69750000   0.37680000
si si_524   0.28515000   0.19750000   0.87680000
si si_525   0.87320000   0.28515000   0.55250000
si si_526   0.87320000   0.78515000   0.05250000
si si_527   0.37320000   0.78515000   0.55250000
si si_528   0.37320000   0.28515000   0.05250000
si si_529   0.87680000   0.05250000   0.96485000
si si_530   0.87680000   0.55250000   0.46485000
si si_531   0.37680000   0.55250000   0.96485000
si si_532   0.37680000   0.05250000   0.46485000
si si_533   0.05250000   0.96485000   0.87680000
si si_534   0.05250000   0.46485000   0.37680000
si si_535   0.55250000   0.46485000   0.87680000
si si_536   0.55250000   0.96485000   0.37680000
si si_537   0.96485000   0.87680000   0.05250000
si si_538   0.96485000   0.37680000   0.55250000
si si_539   0.46485000   0.37680000   0.05250000
si si_540   0.46485000   0.87680000   0.55250000
si si_541   0.62680000   0.94750000   0.71485000
si si_542   0.62680000   0.44750000   0.21485000
si si_543   0.12680000   0.44750000   0.71485000
si si_544   0.12680000   0.94750000   0.21485000
si si_545   0.80250000   0.03515000   0.62680000
si si_546   0.80250000   0.53515000   0.12680000
si si_547   0.30250000   0.53515000   0.62680000
si si_548   0.30250000   0.03515000   0.12680000
si si_549   0.71485000   0.12320000   0.80250000
si si_550   0.71485000   0.62320000   0.30250000
si si_551   0.21485000   0.62320000   0.80250000
si si_552   0.21485000   0.12320000   0.30250000
si si_553   0.12320000   0.80250000   0.71485000
si si_554   0.12320000   0.30250000   0.21485000
si si_555   0.62320000   0.30250000   0.71485000
si si_556   0.62320000   0.80250000   0.21485000
si si_557   0.94750000   0.71485000   0.62680000
si si_558   0.94750000   0.21485000   0.12680000
si si_559   0.44750000   0.21485000   0.62680000
si si_560   0.44750000   0.71485000   0.12680000
si si_561   0.03515000   0.62680000   0.80250000
si si_562   0.03515000   0.12680000   0.30250000
si si_563   0.53515000   0.12680000   0.80250000
si si_564   0.53515000   0.62680000   0.30250000
si si_565   0.37320000   0.69750000   0.46485000
si si_566   0.37320000   0.19750000   0.96485000
si si_567   0.87320000   0.19750000   0.46485000
si si_568   0.87320000   0.69750000   0.96485000
si si_569   0.19750000   0.78515000   0.37680000
si si_570   0.19750000   0.28515000   0.87680000
si si_571   0.69750000   0.28515000   0.37680000
si si_572   0.69750000   0.78515000   0.87680000
si si_573   0.28515000   0.87320000   0.55250000
si si_574   0.28515000   0.37320000   0.05250000
si si_575   0.78515000   0.37320000   0.55250000
si si_576   0.78515000   0.87320000   0.05250000
